Version 4.1
SHEET 1 880 680
WIRE 240 16 160 16
WIRE 160 48 160 16
WIRE 112 64 -48 64
WIRE -48 96 -48 64
WIRE 112 112 16 112
WIRE 240 112 240 16
WIRE 384 112 240 112
WIRE 384 128 384 112
WIRE 160 144 160 128
WIRE 240 144 240 112
WIRE 16 160 16 112
WIRE 240 224 240 208
WIRE 384 224 384 208
WIRE 384 224 240 224
WIRE 160 256 160 224
WIRE 240 256 240 224
WIRE 240 256 160 256
WIRE 16 272 16 240
WIRE 240 272 240 256
FLAG 240 272 0
FLAG -48 96 0
FLAG 16 272 0
SYMBOL cap 224 144 R0
SYMATTR InstName C1
SYMATTR Value 1uF
SYMBOL ind 368 112 R0
SYMATTR InstName L1
SYMATTR Value 0.025H
SYMBOL voltage 160 128 R0
WINDOW 123 0 0 Left 0
WINDOW 39 0 0 Left 0
SYMATTR InstName V1
SYMATTR Value 10V
SYMBOL sw 160 32 R0
SYMATTR InstName S1
SYMATTR Value MYSW
SYMBOL voltage 16 144 R0
WINDOW 3 -151 197 Left 2
WINDOW 123 0 0 Left 0
WINDOW 39 0 0 Left 0
SYMATTR Value PULSE(0 1 10m 1n 1n 10m 20m 10)
SYMATTR InstName V2
TEXT -56 392 Left 2 !.tran 0 25ms 15ms
TEXT -200 368 Left 2 !.model MYSW SW(Ron=1 Roff=1Meg Vt=0.5)
TEXT -64 -72 Left 2 ;Oscillation Between Capacitor and Inductor
