Version 4.1
SHEET 1 880 680
WIRE 128 304 -64 304
WIRE 304 320 192 320
WIRE -64 336 -64 304
WIRE 128 336 80 336
WIRE -272 352 -272 336
WIRE -272 352 -352 352
WIRE -352 416 -352 352
WIRE 80 432 80 336
WIRE 160 432 80 432
WIRE 304 432 304 320
WIRE 304 432 240 432
FLAG -352 416 0
FLAG -272 256 vcc
FLAG -272 432 vee
FLAG 160 288 vcc
FLAG 160 352 vee
FLAG -64 416 0
FLAG 304 320 vout
FLAG 80 592 0
SYMBOL voltage -272 336 R0
WINDOW 0 22 27 Left 2
WINDOW 123 0 0 Left 0
WINDOW 39 0 0 Left 0
SYMATTR InstName V1
SYMATTR Value 12V
SYMBOL voltage -272 240 R0
WINDOW 123 0 0 Left 0
WINDOW 39 0 0 Left 0
SYMATTR InstName V2
SYMATTR Value 12V
SYMBOL LM741 160 256 R0
SYMATTR InstName U1
SYMBOL voltage -64 320 R0
WINDOW 123 0 0 Left 0
WINDOW 39 0 0 Left 0
SYMATTR InstName V3
SYMATTR Value 2V
SYMBOL res 64 416 R0
SYMATTR InstName R1
SYMATTR Value 7.5k
SYMBOL res 256 416 R90
WINDOW 0 0 56 VBottom 2
WINDOW 3 32 56 VTop 2
SYMATTR InstName R2
SYMATTR Value 51k
SYMBOL voltage 80 496 R0
WINDOW 123 0 0 Left 0
WINDOW 39 0 0 Left 0
SYMATTR InstName V4
SYMATTR Value SINE(0 6V 100)
TEXT -104 160 Left 2 ;Non Inverting Schmitt Trigger with Vref
TEXT -8 224 Left 2 !.tran 0 20ms 0 1ms
