Version 4.1
SHEET 1 880 680
WIRE 208 -48 208 -96
WIRE 160 16 128 16
WIRE 272 16 240 16
WIRE -16 144 -112 144
WIRE 128 144 128 16
WIRE 128 144 64 144
WIRE 160 144 128 144
WIRE 272 160 272 16
WIRE 272 160 224 160
WIRE -112 176 -112 144
WIRE 160 176 128 176
WIRE 128 224 128 176
FLAG 208 -48 0
FLAG 128 -96 Vcc
IOPIN 128 -96 Out
FLAG 288 -96 Vee
IOPIN 288 -96 Out
FLAG 192 128 Vcc
IOPIN 192 128 In
FLAG 192 192 Vee
IOPIN 192 192 In
FLAG 128 224 0
FLAG -112 256 0
SYMBOL LM741 192 96 R0
SYMATTR InstName U1
SYMBOL voltage 112 -96 R270
WINDOW 0 32 56 VTop 2
WINDOW 3 -32 56 VBottom 2
WINDOW 123 0 0 Left 0
WINDOW 39 0 0 Left 0
SYMATTR InstName V1
SYMATTR Value 15V
SYMBOL voltage 192 -96 R270
WINDOW 0 32 56 VTop 2
WINDOW 3 -32 56 VBottom 2
WINDOW 123 0 0 Left 0
WINDOW 39 0 0 Left 0
SYMATTR InstName V2
SYMATTR Value 15V
SYMBOL res 80 128 R90
WINDOW 0 0 56 VBottom 2
WINDOW 3 32 56 VTop 2
SYMATTR InstName R1
SYMATTR Value 10k
SYMBOL res 256 0 R90
WINDOW 0 0 56 VBottom 2
WINDOW 3 32 56 VTop 2
SYMATTR InstName R2
SYMATTR Value 470k
SYMBOL voltage -112 160 R0
WINDOW 123 24 124 Left 2
WINDOW 39 0 0 Left 0
SYMATTR InstName V3
SYMATTR Value ""
SYMATTR Value2 AC 1
TEXT -120 344 Left 2 !.ac dec 10 100 100MEG
