Version 4.1
SHEET 1 880 680
WIRE 208 208 160 208
WIRE 400 208 368 208
WIRE 432 224 416 224
WIRE 560 224 512 224
WIRE 160 304 160 208
WIRE 208 304 160 304
WIRE 400 304 400 208
WIRE 400 304 368 304
WIRE 400 336 400 304
WIRE 416 336 416 224
WIRE 416 336 400 336
WIRE 432 336 416 336
WIRE 560 352 560 224
WIRE 560 352 496 352
WIRE -48 368 -112 368
WIRE 432 368 400 368
WIRE 160 384 160 304
WIRE 400 432 400 368
WIRE -112 448 -112 368
FLAG -112 448 0
FLAG -48 288 vcc
FLAG -48 448 vee
FLAG 464 320 vcc
FLAG 464 384 vee
FLAG 560 352 vo
FLAG 400 432 0
FLAG 160 384 0
SYMBOL voltage -48 352 R0
WINDOW 123 0 0 Left 0
WINDOW 39 0 0 Left 0
SYMATTR InstName V1
SYMATTR Value 12V
SYMBOL voltage -48 272 R0
WINDOW 3 39 62 Left 2
WINDOW 123 0 0 Left 0
WINDOW 39 0 0 Left 0
SYMATTR InstName V2
SYMATTR Value 12V
SYMBOL LM741 464 288 R0
WINDOW 3 16 102 Left 2
SYMATTR InstName U1
SYMBOL res 528 208 R90
WINDOW 0 0 56 VBottom 2
WINDOW 3 32 56 VTop 2
SYMATTR InstName R1
SYMATTR Value 1k
SYMBOL res 384 288 R90
WINDOW 0 0 56 VBottom 2
WINDOW 3 32 56 VTop 2
SYMATTR InstName R2
SYMATTR Value 1k
SYMBOL res 384 192 R90
WINDOW 0 0 56 VBottom 2
WINDOW 3 32 56 VTop 2
SYMATTR InstName R3
SYMATTR Value 1k
SYMBOL voltage 304 208 R90
WINDOW 0 -32 56 VBottom 2
WINDOW 3 32 56 VTop 2
WINDOW 123 0 0 Left 0
WINDOW 39 0 0 Left 0
SYMATTR InstName V3
SYMATTR Value SINE(0 1V 100)
SYMBOL voltage 304 304 R90
WINDOW 0 81 57 VBottom 2
WINDOW 3 32 56 VTop 2
WINDOW 123 0 0 Left 0
WINDOW 39 0 0 Left 0
SYMATTR InstName V4
SYMATTR Value SINE(0 2V 100)
TEXT 312 80 Left 2 ;Summing Amplifier Experiment
TEXT -24 112 Left 2 !.tran 0 20ms 0 1ms
