Version 4.1
SHEET 1 880 680
WIRE 304 160 160 160
WIRE -32 176 -80 176
WIRE 160 176 160 160
WIRE 464 176 368 176
WIRE 496 176 464 176
WIRE 304 192 256 192
WIRE 464 192 464 176
WIRE -80 208 -80 176
WIRE 256 272 256 192
WIRE 464 272 256 272
FLAG -80 208 0
FLAG -32 96 vcc
FLAG -32 256 vee
FLAG 336 144 vcc
FLAG 336 208 vee
FLAG 160 256 0
FLAG 496 176 Vout
FLAG 464 352 0
SYMBOL voltage -32 160 R0
WINDOW 123 0 0 Left 0
WINDOW 39 0 0 Left 0
SYMATTR InstName V1
SYMATTR Value 12V
SYMBOL voltage -32 80 R0
WINDOW 3 37 56 Left 2
WINDOW 123 0 0 Left 0
WINDOW 39 0 0 Left 0
SYMATTR Value 12V
SYMATTR InstName V2
SYMBOL LM741 336 112 R0
SYMATTR InstName U1
SYMBOL voltage 160 160 R0
WINDOW 3 -76 129 Left 2
WINDOW 123 0 0 Left 0
WINDOW 39 0 0 Left 0
SYMATTR Value SINE(0 5V 100)
SYMATTR InstName V3
SYMBOL res 448 176 R0
SYMATTR InstName R1
SYMATTR Value 100k
SYMBOL res 448 256 R0
SYMATTR InstName R2
SYMATTR Value 100
TEXT 80 32 Left 2 ;Schmitt Trigger Circuit Without Vref
TEXT -96 376 Left 2 !.tran 0 20ms 0 1ms
