Version 4.1
SHEET 1 1704 680
WIRE 32 -352 -128 -352
WIRE 48 -352 32 -352
WIRE 320 -352 304 -352
WIRE 352 -352 320 -352
WIRE -128 -320 -128 -352
WIRE 320 -320 320 -352
WIRE 32 -160 32 -352
WIRE -240 -112 -272 -112
WIRE -128 -112 -128 -240
WIRE -128 -112 -176 -112
WIRE -32 -112 -128 -112
WIRE -128 -80 -128 -112
WIRE -272 -16 -272 -112
WIRE -272 -16 -384 -16
WIRE -128 0 -128 -16
WIRE 32 0 32 -64
WIRE 80 0 32 0
WIRE 224 0 144 0
WIRE -384 16 -384 -16
WIRE 32 64 32 0
WIRE 224 80 224 0
WIRE -272 112 -272 -16
WIRE -224 112 -272 112
WIRE -128 112 -128 64
WIRE -128 112 -160 112
WIRE -32 112 -128 112
WIRE -128 144 -128 112
WIRE 224 240 224 160
WIRE 224 240 176 240
WIRE -128 256 -128 224
WIRE 32 256 32 160
WIRE 32 256 -128 256
WIRE 224 256 224 240
WIRE -384 304 -384 96
WIRE 176 304 176 240
WIRE 176 304 -384 304
FLAG 224 -352 Vcc
IOPIN 224 -352 Out
FLAG 432 -352 Vee
IOPIN 432 -352 Out
FLAG 320 -320 0
FLAG -128 256 Vee
IOPIN -128 256 In
FLAG 224 256 0
FLAG 48 -352 Vcc
IOPIN 48 -352 In
SYMBOL pnp -32 64 R0
SYMATTR InstName Q1
SYMATTR Value 2N3906
SYMBOL npn -32 -160 R0
SYMATTR InstName Q2
SYMATTR Value 2N3904
SYMBOL voltage 208 -352 R270
WINDOW 0 -32 56 VBottom 2
WINDOW 3 32 56 VTop 2
WINDOW 123 0 0 Left 0
WINDOW 39 0 0 Left 0
SYMATTR InstName V1
SYMATTR Value 10V
SYMBOL voltage 336 -352 R270
WINDOW 0 -32 56 VBottom 2
WINDOW 3 32 56 VTop 2
WINDOW 123 0 0 Left 0
WINDOW 39 0 0 Left 0
SYMATTR InstName V2
SYMATTR Value 10V
SYMBOL res 208 64 R0
SYMATTR InstName R1
SYMATTR Value 32
SYMBOL res -144 -336 R0
SYMATTR InstName R3
SYMATTR Value 100k
SYMBOL diode -144 -80 R0
SYMATTR InstName D1
SYMBOL diode -144 0 R0
SYMATTR InstName D2
SYMBOL res -144 128 R0
SYMATTR InstName R2
SYMATTR Value 100k
SYMBOL cap -176 -128 R90
WINDOW 0 0 32 VBottom 2
WINDOW 3 32 32 VTop 2
SYMATTR InstName C1
SYMATTR Value 1u
SYMBOL cap 144 -16 R90
WINDOW 0 0 32 VBottom 2
WINDOW 3 32 32 VTop 2
SYMATTR InstName C2
SYMATTR Value 100u
SYMBOL cap -160 96 R90
WINDOW 0 0 32 VBottom 2
WINDOW 3 32 32 VTop 2
SYMATTR InstName C3
SYMATTR Value 1u
SYMBOL voltage -384 0 R0
WINDOW 123 0 0 Left 0
WINDOW 39 0 0 Left 0
SYMATTR InstName V3
SYMATTR Value SINE(0 1V 1k)
TEXT -624 -312 Left 2 !.tran 0 1ms 0 100n
