Version 4.1
SHEET 1 908 680
WIRE 128 144 112 144
WIRE 240 144 208 144
WIRE 272 144 240 144
WIRE 368 144 352 144
WIRE 592 144 576 144
WIRE 704 144 672 144
WIRE 736 144 704 144
WIRE 832 144 816 144
WIRE 112 176 112 144
WIRE 576 192 576 144
WIRE 240 240 240 144
WIRE 256 240 240 240
WIRE 704 240 704 144
WIRE 736 240 704 240
WIRE 368 256 368 144
WIRE 368 256 320 256
WIRE 432 256 368 256
WIRE 560 256 512 256
WIRE 832 256 832 144
WIRE 832 256 800 256
WIRE 864 256 832 256
WIRE 96 272 64 272
WIRE 208 272 176 272
WIRE 256 272 208 272
WIRE 560 272 560 256
WIRE 592 272 560 272
WIRE 688 272 672 272
WIRE 736 272 688 272
WIRE 64 320 64 272
WIRE 208 320 208 272
WIRE 560 320 560 272
WIRE 688 320 688 272
WIRE 560 496 560 384
WIRE 832 496 832 256
WIRE 832 496 560 496
FLAG 288 224 vcc
FLAG -16 112 vcc
FLAG -16 272 vee
FLAG 288 288 vee
FLAG 768 224 vcc
FLAG 768 288 vee
FLAG 64 400 0
FLAG 864 256 vout
FLAG 688 384 0
FLAG 208 384 0
FLAG 112 176 0
FLAG 576 192 0
SYMBOL voltage -16 176 R0
WINDOW 123 0 0 Left 0
WINDOW 39 0 0 Left 0
SYMATTR InstName V1
SYMATTR Value 12V
SYMBOL voltage -16 96 R0
WINDOW 3 37 75 Left 2
WINDOW 123 0 0 Left 0
WINDOW 39 0 0 Left 0
SYMATTR InstName V2
SYMATTR Value 12V
SYMBOL LM741 288 192 R0
SYMATTR InstName U1
SYMBOL LM741 768 192 R0
SYMATTR InstName U2
SYMBOL cap 192 320 R0
SYMATTR InstName C1
SYMATTR Value 0.01u
SYMBOL cap 672 320 R0
SYMATTR InstName C2
SYMATTR Value 0.01u
SYMBOL cap 544 320 R0
SYMATTR InstName C3
SYMATTR Value 0.01u
SYMBOL res 192 256 R90
WINDOW 0 0 56 VBottom 2
WINDOW 3 32 56 VTop 2
SYMATTR InstName R1
SYMATTR Value 1.591k
SYMBOL voltage 64 304 R0
WINDOW 123 24 114 Left 2
WINDOW 39 0 0 Left 0
SYMATTR InstName V3
SYMATTR Value ""
SYMATTR Value2 AC 1V
SYMBOL res 688 256 R90
WINDOW 0 0 56 VBottom 2
WINDOW 3 32 56 VTop 2
SYMATTR InstName R2
SYMATTR Value 1.591k
SYMBOL res 528 240 R90
WINDOW 0 0 56 VBottom 2
WINDOW 3 32 56 VTop 2
SYMATTR InstName R3
SYMATTR Value 1.591k
SYMBOL res 224 128 R90
WINDOW 0 0 56 VBottom 2
WINDOW 3 32 56 VTop 2
SYMATTR InstName R4
SYMATTR Value 1k
SYMBOL res 368 128 R90
WINDOW 0 0 56 VBottom 2
WINDOW 3 32 56 VTop 2
SYMATTR InstName R5
SYMATTR Value 4.7k
SYMBOL res 688 128 R90
WINDOW 0 0 56 VBottom 2
WINDOW 3 32 56 VTop 2
SYMATTR InstName R6
SYMATTR Value 47k
SYMBOL res 832 128 R90
WINDOW 0 0 56 VBottom 2
WINDOW 3 32 56 VTop 2
SYMATTR InstName R7
SYMATTR Value 4.7k
TEXT 8 16 Left 2 ;Third Order Active Low Pass FIlter Butterworth meaning Q = 0.707
TEXT 168 64 Left 2 !.ac dec 10 100 100k
