Version 4.1
SHEET 1 880 692
WIRE -32 48 -48 48
WIRE 96 48 48 48
WIRE -208 160 -256 160
WIRE -48 160 -48 48
WIRE -48 160 -128 160
WIRE -32 160 -48 160
WIRE -256 176 -256 160
WIRE 96 176 96 48
WIRE 96 176 32 176
WIRE 256 176 96 176
WIRE -32 192 -80 192
WIRE -368 256 -448 256
WIRE -80 256 -80 192
WIRE -448 304 -448 256
WIRE -256 352 -256 256
WIRE -224 352 -256 352
WIRE -80 352 -160 352
WIRE -32 352 -80 352
WIRE 96 352 32 352
WIRE 160 352 96 352
WIRE 256 352 256 176
WIRE 256 352 224 352
WIRE -80 432 -80 352
WIRE 96 432 96 352
WIRE -80 560 -80 512
WIRE 96 560 96 512
FLAG -80 560 0
FLAG 96 560 0
FLAG -448 304 0
FLAG -368 336 vee
FLAG -368 176 vcc
FLAG 0 144 vcc
FLAG 0 208 vee
FLAG -80 256 0
FLAG 256 176 Vout
SYMBOL cap -160 336 R90
WINDOW 0 0 32 VBottom 2
WINDOW 3 32 32 VTop 2
SYMATTR InstName C3
SYMATTR Value 13n
SYMBOL cap 32 336 R90
WINDOW 0 0 32 VBottom 2
WINDOW 3 32 32 VTop 2
SYMATTR InstName C4
SYMATTR Value 13n
SYMBOL cap 224 336 R90
WINDOW 0 0 32 VBottom 2
WINDOW 3 32 32 VTop 2
SYMATTR InstName C5
SYMATTR Value 13n
SYMBOL res -96 416 R0
SYMATTR InstName R6
SYMATTR Value 1k
SYMBOL res 80 416 R0
SYMATTR InstName R7
SYMATTR Value 1k
SYMBOL LM741 0 112 R0
WINDOW 3 16 102 Left 2
SYMATTR InstName U1
SYMBOL voltage -368 240 R0
WINDOW 123 0 0 Left 0
WINDOW 39 0 0 Left 0
SYMATTR InstName V1
SYMATTR Value 12V
SYMBOL voltage -368 160 R0
WINDOW 3 38 63 Left 2
WINDOW 123 0 0 Left 0
WINDOW 39 0 0 Left 0
SYMATTR Value 12V
SYMATTR InstName V2
SYMBOL res 64 32 R90
WINDOW 0 0 56 VBottom 2
WINDOW 3 32 56 VTop 2
SYMATTR InstName R1
SYMATTR Value 32k
SYMBOL res -272 160 R0
SYMATTR InstName R2
SYMATTR Value 1k
SYMBOL voltage -112 160 R90
WINDOW 3 -59 -15 VRight 2
WINDOW 123 0 0 Left 0
WINDOW 39 0 0 Left 0
SYMATTR InstName V3
SYMATTR Value SINE(0 1m 5k)
TEXT -128 -80 Left 2 ;OP Amp RC Oscillator
TEXT -104 -24 Left 2 !.tran 0 14.6m 14m 10u
