Version 4.1
SHEET 1 880 680
SYMBOL OpAmps\\opamp2 288 144 R0
SYMATTR InstName U1
SYMATTR Value LM741
TEXT 248 120 Left 2 !.lib LM741.lib
