Version 4.1
SHEET 1 956 680
WIRE 208 -112 176 -112
WIRE 336 -112 288 -112
WIRE 368 -112 336 -112
WIRE 512 -112 448 -112
WIRE 176 -64 176 -112
WIRE 512 -32 512 -112
WIRE 544 -32 512 -32
WIRE 336 16 336 -112
WIRE 368 16 336 16
WIRE 512 32 512 -32
WIRE 512 32 432 32
WIRE 208 48 96 48
WIRE 320 48 288 48
WIRE 368 48 320 48
WIRE 608 64 592 64
WIRE 752 64 688 64
WIRE 784 64 752 64
WIRE 912 64 864 64
WIRE 320 80 320 48
WIRE 592 96 592 64
WIRE 16 144 16 112
WIRE 16 144 -64 144
WIRE 16 176 16 144
WIRE 752 192 752 64
WIRE 784 192 752 192
WIRE -64 208 -64 144
WIRE 544 208 544 -32
WIRE 592 208 544 208
WIRE 720 208 672 208
WIRE 912 208 912 64
WIRE 912 208 848 208
WIRE 720 224 720 208
WIRE 784 224 720 224
WIRE 208 240 176 240
WIRE 320 240 288 240
WIRE 368 240 320 240
WIRE 512 240 448 240
WIRE 176 288 176 240
WIRE 512 288 512 240
WIRE 592 288 512 288
WIRE 720 288 720 224
WIRE 720 288 672 288
WIRE 96 352 96 48
WIRE 176 352 96 352
WIRE 320 384 320 240
WIRE 368 384 320 384
WIRE 96 400 96 352
WIRE 512 400 512 288
WIRE 512 400 432 400
WIRE 176 416 176 352
WIRE 208 416 176 416
WIRE 320 416 272 416
WIRE 368 416 320 416
WIRE 320 464 320 416
FLAG -64 208 0
FLAG 16 32 vcc
FLAG 400 0 vcc
FLAG 400 368 vcc
FLAG 816 176 vcc
FLAG 16 256 vee
FLAG 400 432 vee
FLAG 816 240 vee
FLAG 400 64 vee
FLAG 176 -64 0
FLAG 176 288 0
FLAG 592 96 0
FLAG 96 480 0
FLAG 320 144 0
FLAG 320 544 0
FLAG 912 208 vout
SYMBOL voltage 16 160 R0
WINDOW 123 0 0 Left 0
WINDOW 39 0 0 Left 0
SYMATTR InstName V1
SYMATTR Value 12V
SYMBOL voltage 16 16 R0
WINDOW 123 0 0 Left 0
WINDOW 39 0 0 Left 0
SYMATTR InstName V2
SYMATTR Value 12V
SYMBOL LM741 400 -32 R0
SYMATTR InstName U1
SYMBOL LM741 400 336 R0
SYMATTR InstName U2
SYMBOL LM741 816 144 R0
SYMATTR InstName U3
SYMBOL res 464 -128 R90
WINDOW 0 0 56 VBottom 2
WINDOW 3 32 56 VTop 2
SYMATTR InstName R1
SYMATTR Value 10k
SYMBOL res 304 -128 R90
WINDOW 0 0 56 VBottom 2
WINDOW 3 32 56 VTop 2
SYMATTR InstName R2
SYMATTR Value 5.1k
SYMBOL res 304 32 R90
WINDOW 0 0 56 VBottom 2
WINDOW 3 32 56 VTop 2
SYMATTR InstName R3
SYMATTR Value 16k
SYMBOL res 464 224 R90
WINDOW 0 0 56 VBottom 2
WINDOW 3 32 56 VTop 2
SYMATTR InstName R4
SYMATTR Value 10k
SYMBOL res 304 224 R90
WINDOW 0 0 56 VBottom 2
WINDOW 3 32 56 VTop 2
SYMATTR InstName R5
SYMATTR Value 5.1k
SYMBOL res 336 560 R180
WINDOW 0 36 76 Left 2
WINDOW 3 36 40 Left 2
SYMATTR InstName R6
SYMATTR Value 1.6k
SYMBOL res 576 304 R270
WINDOW 0 32 56 VTop 2
WINDOW 3 0 56 VBottom 2
SYMATTR InstName R7
SYMATTR Value 10k
SYMBOL res 576 224 R270
WINDOW 0 32 56 VTop 2
WINDOW 3 0 56 VBottom 2
SYMATTR InstName R8
SYMATTR Value 10k
SYMBOL res 768 80 R270
WINDOW 0 32 56 VTop 2
WINDOW 3 0 56 VBottom 2
SYMATTR InstName R9
SYMATTR Value 30k
SYMBOL res 592 80 R270
WINDOW 0 32 56 VTop 2
WINDOW 3 0 56 VBottom 2
SYMATTR InstName R10
SYMATTR Value 10k
SYMBOL cap 304 80 R0
SYMATTR InstName C1
SYMATTR Value 0.01u
SYMBOL cap 272 400 R90
WINDOW 0 0 32 VBottom 2
WINDOW 3 32 32 VTop 2
SYMATTR InstName C2
SYMATTR Value 0.01u
SYMBOL voltage 96 384 R0
WINDOW 123 24 124 Left 2
WINDOW 39 0 0 Left 0
SYMATTR InstName V3
SYMATTR Value ""
SYMATTR Value2 AC 1V
TEXT -96 -136 Left 2 ;Wide BandStop Filter
TEXT -80 -96 Left 2 !.ac dec 10 10 100k
