Version 4.1
SHEET 1 880 680
WIRE 272 80 240 80
WIRE 384 80 352 80
WIRE 112 176 80 176
WIRE 240 176 240 80
WIRE 240 176 192 176
WIRE 272 176 240 176
WIRE 384 192 384 80
WIRE 384 192 336 192
WIRE -64 208 -128 208
WIRE 272 208 224 208
WIRE 80 240 80 176
WIRE -128 256 -128 208
WIRE 224 256 224 208
WIRE 224 256 192 256
WIRE 112 304 112 256
WIRE 224 352 224 320
FLAG -128 256 0
FLAG 304 160 vcc
FLAG -64 128 vcc
FLAG -64 288 vee
FLAG 304 224 vee
FLAG 80 240 0
FLAG 224 352 0
FLAG 112 384 0
FLAG 384 192 vout
SYMBOL voltage -64 192 R0
WINDOW 123 0 0 Left 0
WINDOW 39 0 0 Left 0
SYMATTR InstName V1
SYMATTR Value 12V
SYMBOL voltage -64 112 R0
WINDOW 3 38 69 Left 2
WINDOW 123 0 0 Left 0
WINDOW 39 0 0 Left 0
SYMATTR Value 12V
SYMATTR InstName V2
SYMBOL LM741 304 128 R0
SYMATTR InstName U1
SYMBOL res 256 64 M90
WINDOW 0 0 56 VBottom 2
WINDOW 3 32 56 VTop 2
SYMATTR InstName R1
SYMATTR Value 10k
SYMBOL res 96 160 M90
WINDOW 0 0 56 VBottom 2
WINDOW 3 32 56 VTop 2
SYMATTR InstName R2
SYMATTR Value 2k
SYMBOL cap 208 256 R0
SYMATTR InstName C1
SYMATTR Value 0.01uF
SYMBOL res 96 272 R270
WINDOW 0 32 56 VTop 2
WINDOW 3 0 56 VBottom 2
SYMATTR InstName R3
SYMATTR Value 3.3k
SYMBOL voltage 112 288 R0
WINDOW 123 24 114 Left 2
WINDOW 39 0 0 Left 0
SYMATTR Value2 AC 1V
SYMATTR InstName V3
SYMATTR Value ""
TEXT -24 32 Left 2 ;First Order Active Low Pass Butterworth Filter
TEXT 64 56 Left 2 !.ac dec 10 100 100k
