Version 4.1
SHEET 1 880 680
WIRE -208 128 -256 128
WIRE 272 128 192 128
WIRE 384 128 336 128
WIRE 512 128 384 128
WIRE 384 144 384 128
WIRE 640 144 576 144
WIRE -256 160 -256 128
FLAG -256 160 0
FLAG -112 96 VEE
FLAG -112 160 VCC
FLAG 160 96 VCC
FLAG 544 112 VCC
FLAG 544 176 VEE
FLAG 160 160 VEE
FLAG 384 224 0
FLAG 640 144 VOUT
FLAG -160 272 VIN
FLAG -160 352 0
SYMBOL LM741 160 64 R0
SYMATTR InstName U1
SYMBOL LM741 544 80 R0
SYMATTR InstName U2
SYMBOL SPLIT_SUPPLY -128 112 R0
SYMATTR InstName U3
SYMATTR SpiceLine Vp=5V Vn=-5V
SYMBOL cap 336 112 R90
WINDOW 0 0 32 VBottom 2
WINDOW 3 32 32 VTop 2
SYMATTR InstName C1
SYMATTR Value 1p
SYMBOL res 368 128 R0
SYMATTR InstName R1
SYMATTR Value 50
SYMBOL voltage -160 256 R0
SYMATTR InstName V1
