Version 4.1
SHEET 1 880 680
WIRE -64 -32 -272 -32
WIRE 80 -32 -64 -32
WIRE -272 -16 -272 -32
WIRE 80 -16 80 -32
WIRE 80 96 80 64
WIRE 80 96 -80 96
WIRE 128 96 80 96
WIRE 256 96 192 96
WIRE -336 144 -368 144
WIRE -272 144 -272 64
WIRE -144 144 -272 144
WIRE 80 144 80 96
WIRE 16 192 -80 192
WIRE 256 224 256 96
WIRE 80 304 80 240
WIRE 256 368 256 304
WIRE 80 432 80 384
FLAG -480 208 vcc
FLAG -480 288 0
FLAG -480 112 0
FLAG -480 32 vin
FLAG 80 432 0
FLAG -368 144 vin
FLAG 256 368 0
FLAG -64 -32 vcc
FLAG 256 96 vout
SYMBOL voltage -480 192 R0
WINDOW 123 0 0 Left 0
WINDOW 39 0 0 Left 0
SYMATTR InstName V1
SYMATTR Value 24
SYMBOL voltage -480 16 R0
WINDOW 3 -81 129 Left 2
WINDOW 123 0 0 Left 0
WINDOW 39 0 0 Left 0
SYMATTR InstName V2
SYMATTR Value SINE(0 80m 1k)
SYMBOL npn 16 144 R0
SYMATTR InstName Q1
SYMATTR Value 2N3904
SYMBOL npn -144 96 R0
SYMATTR InstName Q2
SYMATTR Value 2N3904
SYMBOL res -288 -32 R0
SYMATTR InstName R1
SYMATTR Value 4.7k
SYMBOL res 64 288 R0
SYMATTR InstName R3
SYMATTR Value 8
SYMBOL cap -336 128 M90
WINDOW 0 0 32 VBottom 2
WINDOW 3 32 32 VTop 2
SYMATTR InstName C1
SYMATTR Value 1u
SYMBOL cap 192 80 R90
WINDOW 0 0 32 VBottom 2
WINDOW 3 32 32 VTop 2
SYMATTR InstName C2
SYMATTR Value 10u
SYMBOL res 240 208 R0
SYMATTR InstName R4
SYMATTR Value 8
SYMBOL res 64 -32 R0
SYMATTR InstName R2
SYMATTR Value 560
TEXT -560 408 Left 2 !.tran 3ms
