Version 4.1
SHEET 1 880 680
WIRE 176 -80 176 -128
WIRE -128 16 -160 16
WIRE 112 16 32 16
WIRE 160 16 112 16
WIRE 288 16 240 16
WIRE -160 64 -160 16
WIRE -48 112 -48 16
WIRE -48 112 -96 112
WIRE 112 128 112 16
WIRE 160 128 112 128
WIRE 288 144 288 16
WIRE 288 144 224 144
WIRE -96 160 -96 112
WIRE -48 160 -96 160
WIRE 96 160 32 160
WIRE 160 160 96 160
WIRE 96 176 96 160
FLAG 176 -80 0
FLAG 96 -128 Vcc
FLAG 256 -128 Vee
FLAG 192 112 Vcc
FLAG 192 176 Vee
FLAG 96 256 0
FLAG -160 64 0
FLAG 288 144 Vo
SYMBOL LM741 192 80 R0
SYMATTR InstName U1
SYMBOL voltage 80 -128 R270
WINDOW 0 32 56 VTop 2
WINDOW 3 -32 56 VBottom 2
WINDOW 123 0 0 Left 0
WINDOW 39 0 0 Left 0
SYMATTR InstName V1
SYMATTR Value 15V
SYMBOL voltage 160 -128 R270
WINDOW 0 32 56 VTop 2
WINDOW 3 -32 56 VBottom 2
WINDOW 123 0 0 Left 0
WINDOW 39 0 0 Left 0
SYMATTR InstName V2
SYMATTR Value 15V
SYMBOL res 80 160 R0
SYMATTR InstName R1
SYMATTR Value 10k
SYMBOL res 48 144 R90
WINDOW 0 0 56 VBottom 2
WINDOW 3 32 56 VTop 2
SYMATTR InstName R2
SYMATTR Value 10k
SYMBOL res 48 0 R90
WINDOW 0 0 56 VBottom 2
WINDOW 3 32 56 VTop 2
SYMATTR InstName R3
SYMATTR Value 10k
SYMBOL res 256 0 R90
WINDOW 0 0 56 VBottom 2
WINDOW 3 32 56 VTop 2
SYMATTR InstName R4
SYMATTR Value 10k
SYMBOL voltage -32 16 R90
WINDOW 0 -32 56 VBottom 2
WINDOW 3 32 56 VTop 2
WINDOW 123 0 0 Left 0
WINDOW 39 0 0 Left 0
SYMATTR InstName V3
SYMATTR Value 1V
TEXT 288 232 Left 2 !.op
