Version 4.1
SHEET 1 880 680
WIRE 416 112 304 112
WIRE 304 176 304 112
WIRE 336 176 304 176
WIRE 416 192 416 112
WIRE 416 192 400 192
WIRE -48 208 -112 208
WIRE 336 208 176 208
WIRE 176 224 176 208
WIRE -112 240 -112 208
FLAG -112 240 0
FLAG -48 128 vcc
FLAG -48 288 vee
FLAG 368 160 vcc
FLAG 368 224 vee
FLAG 416 192 Vout
FLAG 176 304 0
SYMBOL LM741 368 128 R0
WINDOW 3 17 103 Left 2
SYMATTR InstName U1
SYMBOL voltage -48 192 R0
WINDOW 123 0 0 Left 0
WINDOW 39 0 0 Left 0
SYMATTR InstName V1
SYMATTR Value 12V
SYMBOL voltage -48 112 R0
WINDOW 3 35 54 Left 2
WINDOW 123 0 0 Left 0
WINDOW 39 0 0 Left 0
SYMATTR InstName V2
SYMATTR Value 12V
SYMBOL voltage 176 208 R0
WINDOW 123 0 0 Left 0
WINDOW 39 0 0 Left 0
SYMATTR InstName V3
SYMATTR Value SINE(0 1V 100)
TEXT 120 48 Left 2 ;Voltage Follower
TEXT -128 384 Left 2 !.tran 0 20ms 0 1ms
