Version 4.1
SHEET 1 1880 680
WIRE 688 -1280 688 -1408
WIRE 688 -1280 496 -1280
WIRE 496 -1248 496 -1280
WIRE 688 -1184 688 -1280
WIRE 496 -1136 496 -1168
WIRE 624 -1136 496 -1136
WIRE 496 -1088 496 -1136
WIRE 688 -1072 688 -1088
WIRE 496 -992 496 -1024
WIRE 688 -960 688 -992
WIRE 784 -960 688 -960
WIRE 1008 -960 848 -960
WIRE 688 -928 688 -960
WIRE 496 -880 496 -912
WIRE 688 -832 688 -848
WIRE 1008 -816 1008 -960
WIRE 496 -784 496 -816
WIRE 624 -784 496 -784
WIRE 1008 -688 1008 -736
WIRE 208 -624 208 -672
WIRE -160 -608 -208 -608
WIRE -208 -576 -208 -608
WIRE 416 -512 416 -576
WIRE 688 -496 688 -736
WIRE 64 -464 16 -464
WIRE 208 -464 208 -544
WIRE 208 -464 128 -464
WIRE 352 -464 208 -464
WIRE 208 -384 208 -464
WIRE 416 -384 416 -416
WIRE 544 -384 416 -384
WIRE 416 -368 416 -384
WIRE 544 -368 544 -384
WIRE 416 -272 416 -288
WIRE 544 -272 544 -304
WIRE 544 -272 416 -272
WIRE 208 -256 208 -304
WIRE 416 -256 416 -272
FLAG -208 -576 0
FLAG -64 -576 vcc
FLAG -64 -640 vee
FLAG 208 -256 0
FLAG 416 -256 0
FLAG 416 -576 vout1
FLAG 208 -672 vcc
FLAG 16 -464 vin
FLAG -128 -304 vin
FLAG -128 -224 0
FLAG 688 -496 vee
FLAG 688 -1408 vcc
FLAG 1008 -688 0
FLAG 496 -784 vout1
FLAG 1008 -960 vout
SYMBOL SPLIT_SUPPLY -80 -624 R0
SYMATTR InstName U1
SYMBOL npn 352 -512 R0
SYMATTR InstName Q1
SYMATTR Value 2N3904
SYMBOL res 192 -640 R0
SYMATTR InstName R1
SYMATTR Value 2.4k
SYMBOL res 192 -400 R0
SYMATTR InstName R2
SYMATTR Value 600
SYMBOL res 400 -384 R0
SYMATTR InstName R3
SYMATTR Value 40
SYMBOL cap 528 -368 R0
SYMATTR InstName C1
SYMATTR Value 330u
SYMBOL cap 128 -480 R90
WINDOW 0 0 32 VBottom 2
WINDOW 3 32 32 VTop 2
SYMATTR InstName C2
SYMATTR Value 1u
SYMBOL voltage -128 -320 R0
WINDOW 123 0 0 Left 0
WINDOW 39 0 0 Left 0
SYMATTR InstName V1
SYMATTR Value SINE(0 20m 1k)
SYMBOL npn 624 -1184 R0
SYMATTR InstName Q2
SYMATTR Value BD135
SYMBOL pnp 624 -736 M180
SYMATTR InstName Q3
SYMATTR Value BD136
SYMBOL res 672 -1088 R0
SYMATTR InstName R4
SYMATTR Value 0.56
SYMBOL res 672 -944 R0
SYMATTR InstName R5
SYMATTR Value 0.56
SYMBOL cap 784 -976 M90
WINDOW 0 0 32 VBottom 2
WINDOW 3 32 32 VTop 2
SYMATTR InstName C3
SYMATTR Value 990u
SYMBOL res 992 -832 R0
SYMATTR InstName R6
SYMATTR Value 4
SYMBOL res 480 -1264 R0
SYMATTR InstName R7
SYMATTR Value 81.76
SYMBOL res 480 -1008 R0
SYMATTR InstName R8
SYMATTR Value 1.12
SYMBOL diode 480 -1088 R0
SYMATTR InstName D1
SYMATTR Value 1N4007
SYMBOL diode 480 -880 R0
SYMATTR InstName D2
SYMATTR Value 1N4007
TEXT -184 -952 Left 2 !.lib BD135.lib
TEXT -176 -912 Left 2 !.lib BD136.lib
TEXT -224 -192 Left 2 !.tran 3ms
