Version 4.1
SHEET 1 1272 1044
WIRE 880 -128 704 -128
WIRE 704 -112 704 -128
WIRE 880 -64 880 -128
WIRE 704 -16 704 -32
WIRE 816 -16 704 -16
WIRE 704 32 704 -16
WIRE 336 48 336 16
WIRE 336 48 240 48
WIRE 880 48 880 32
WIRE 336 64 336 48
WIRE 240 80 240 48
WIRE 704 112 704 96
WIRE 880 144 880 128
WIRE 960 144 880 144
WIRE 1088 144 1024 144
WIRE 1216 144 1088 144
WIRE 880 160 880 144
WIRE 704 224 704 192
WIRE 1216 240 1216 144
WIRE 880 272 880 240
WIRE 1088 304 1088 144
WIRE 704 320 704 288
WIRE 816 320 704 320
WIRE 704 368 528 368
WIRE 528 448 528 368
WIRE 1088 512 1088 368
WIRE 1216 512 1216 320
WIRE 880 528 880 368
WIRE 704 608 704 528
WIRE 384 656 368 656
WIRE 528 656 528 528
WIRE 528 656 448 656
WIRE 640 656 528 656
WIRE 704 768 704 704
WIRE 784 768 704 768
WIRE 704 784 704 768
WIRE 528 800 528 656
WIRE 784 800 784 768
WIRE 704 928 704 864
WIRE 784 928 784 864
WIRE 784 928 704 928
WIRE 528 944 528 880
WIRE 704 944 704 928
WIRE 704 944 528 944
WIRE 704 992 704 944
FLAG 336 -64 vcc
FLAG 240 80 0
FLAG 1216 512 0
FLAG 880 -128 vcc
FLAG 1216 144 vout2
FLAG 704 992 0
FLAG 256 320 vin2
FLAG 368 656 vin2
FLAG 704 368 vcc
FLAG 256 400 0
FLAG 704 320 vout
FLAG 704 528 vout
FLAG 1088 512 0
FLAG 336 144 vee
FLAG 880 528 vee
SYMBOL voltage 336 -80 R0
WINDOW 123 0 0 Left 0
WINDOW 39 0 0 Left 0
SYMATTR InstName V1
SYMATTR Value 12V
SYMBOL npn 816 -64 R0
SYMATTR InstName Q1
SYMATTR Value BD135
SYMBOL pnp 816 368 M180
SYMATTR InstName Q2
SYMATTR Value BD136
SYMBOL res 1200 224 R0
SYMATTR InstName R1
SYMATTR Value 8
SYMBOL res 864 32 R0
SYMATTR InstName R2
SYMATTR Value 0.4
SYMBOL res 864 144 R0
SYMATTR InstName R3
SYMATTR Value 0.4
SYMBOL res 688 96 R0
SYMATTR InstName R4
SYMATTR Value 0.3
SYMBOL diode 688 32 R0
SYMATTR InstName D1
SYMATTR Value 1N4007
SYMBOL diode 688 224 R0
SYMATTR InstName D2
SYMATTR Value 1N4007
SYMBOL res 688 -128 R0
SYMATTR InstName R5
SYMATTR Value 237.5
SYMBOL npn 640 608 R0
SYMATTR InstName Q3
SYMATTR Value 2N3904
SYMBOL res 688 768 R0
SYMATTR InstName R7
SYMATTR Value 100
SYMBOL res 512 432 R0
SYMATTR InstName R8
SYMATTR Value 4.5k
SYMBOL res 512 784 R0
SYMATTR InstName R9
SYMATTR Value 1.5k
SYMBOL cap 768 800 R0
SYMATTR InstName C2
SYMATTR Value 612u
SYMBOL cap 384 640 M90
WINDOW 0 0 32 VBottom 2
WINDOW 3 32 32 VTop 2
SYMATTR InstName C3
SYMATTR Value 1u
SYMBOL voltage 256 304 R0
WINDOW 123 24 124 Left 2
WINDOW 39 24 152 Left 2
SYMATTR Value2 AC 1
SYMATTR SpiceLine Rser=600
SYMATTR InstName V3
SYMATTR Value SINE(0 20m 1k)
SYMBOL cap 1072 304 R0
SYMATTR InstName C4
SYMATTR Value 4.4u
SYMBOL voltage 336 48 R0
WINDOW 123 0 0 Left 0
WINDOW 39 0 0 Left 0
SYMATTR InstName V2
SYMATTR Value 12V
SYMBOL cap 1024 128 R90
WINDOW 0 0 32 VBottom 2
WINDOW 3 32 32 VTop 2
SYMATTR InstName C1
SYMATTR Value 660u
TEXT 392 240 Left 2 !.lib BD135.lib
TEXT 392 264 Left 2 !.lib BD136.lib
TEXT 392 216 Left 2 ;.tran 3ms
TEXT 392 288 Left 2 !.ac dec 100 10 1MEG
TEXT 328 -224 Left 2 ;Complementary Symmetry Push Pull Amplifier
