Version 4.1
SHEET 1 880 680
WIRE 32 96 -96 96
WIRE 192 96 96 96
WIRE -96 144 -96 96
WIRE 192 144 192 96
WIRE -96 272 -96 224
WIRE 192 272 192 224
WIRE 192 272 -96 272
FLAG 192 272 0
SYMBOL res 208 240 R180
WINDOW 0 36 76 Left 2
WINDOW 3 36 40 Left 2
SYMATTR InstName R1
SYMATTR Value 100
SYMBOL cap 96 80 R90
WINDOW 0 0 32 VBottom 2
WINDOW 3 32 32 VTop 2
SYMATTR InstName C1
SYMATTR Value 1u
SYMBOL voltage -96 128 R0
WINDOW 3 -12 173 Left 2
WINDOW 123 0 0 Left 0
WINDOW 39 0 0 Left 0
SYMATTR InstName V1
SYMATTR Value PULSE(-1 1 0 1n 1n 10ms 20ms 4)
TEXT 204 45 Left 2 !.tran 0 80ms 0 1us
