Version 4.1
SHEET 1 1160 680
WIRE 144 80 64 80
WIRE 304 80 224 80
WIRE 64 128 64 80
WIRE 304 128 304 80
WIRE 64 240 64 208
WIRE 304 240 304 208
WIRE 304 240 64 240
WIRE 64 256 64 240
FLAG 64 256 0
FLAG 304 80 vout
FLAG 64 80 vin
SYMBOL voltage 64 112 R0
WINDOW 123 0 0 Left 0
WINDOW 39 0 0 Left 0
SYMATTR InstName V1
SYMATTR Value 3V
SYMBOL res 288 112 R0
SYMATTR InstName R1
SYMATTR Value {x}
SYMBOL res 240 64 R90
WINDOW 0 0 56 VBottom 2
WINDOW 3 32 56 VTop 2
SYMATTR InstName R2
SYMATTR Value 600
TEXT -168 -104 Left 2 ;Loading Effect\nthe laod resistance should be significantly higher than the internal resistance of the source\nshould not be lower or comparable\n \nas maximum voltage will drop across the internal resistance
TEXT 112 344 Left 2 !.step param x 10 10k 100
TEXT -168 368 Left 2 !.op
TEXT -24 392 Left 2 ;Also maximum power transfer is shown here\nwhen Rsource = Rload
LINE Normal -16 288 -16 48 2
LINE Normal 240 288 -16 288 2
LINE Normal 240 32 240 288 2
LINE Normal -16 32 240 32 2
LINE Normal -16 48 -16 32 2
