Version 4.1
SHEET 1 880 680
WIRE 304 -96 240 -96
WIRE 416 -96 384 -96
WIRE 464 -96 416 -96
WIRE 592 -96 544 -96
WIRE 240 -48 240 -96
WIRE -48 -16 -112 -16
WIRE -112 16 -112 -16
WIRE 416 32 416 -96
WIRE 464 32 416 32
WIRE 592 48 592 -96
WIRE 592 48 528 48
WIRE 688 48 592 48
WIRE 112 64 64 64
WIRE 240 64 192 64
WIRE 272 64 240 64
WIRE 384 64 352 64
WIRE 464 64 384 64
WIRE 240 112 240 64
WIRE 384 112 384 64
WIRE 64 160 64 64
WIRE 384 192 384 176
WIRE 240 288 240 176
WIRE 592 288 592 48
WIRE 592 288 240 288
FLAG -112 16 0
FLAG 496 16 vcc
FLAG -48 -96 vcc
FLAG -48 64 vee
FLAG 496 80 vee
FLAG 240 -48 0
FLAG 384 192 0
FLAG 64 240 0
FLAG 688 48 vout
SYMBOL voltage -48 -32 R0
WINDOW 123 0 0 Left 0
WINDOW 39 0 0 Left 0
SYMATTR InstName V1
SYMATTR Value 12V
SYMBOL voltage -48 -112 R0
WINDOW 3 30 79 Left 2
WINDOW 123 0 0 Left 0
WINDOW 39 0 0 Left 0
SYMATTR Value 12V
SYMATTR InstName V2
SYMBOL LM741 496 -16 R0
SYMATTR InstName U1
SYMBOL res 560 -112 R90
WINDOW 0 0 56 VBottom 2
WINDOW 3 32 56 VTop 2
SYMATTR InstName R1
SYMATTR Value 5.86k
SYMBOL res 400 -112 R90
WINDOW 0 0 56 VBottom 2
WINDOW 3 32 56 VTop 2
SYMATTR InstName R2
SYMATTR Value 5k
SYMBOL cap 368 112 R0
SYMATTR InstName C1
SYMATTR Value 0.1uF
SYMBOL cap 224 112 R0
SYMATTR InstName C2
SYMATTR Value 0.1uF
SYMBOL res 368 48 R90
WINDOW 0 0 56 VBottom 2
WINDOW 3 32 56 VTop 2
SYMATTR InstName R3
SYMATTR Value 318.30
SYMBOL res 208 48 R90
WINDOW 0 0 56 VBottom 2
WINDOW 3 32 56 VTop 2
SYMATTR InstName R4
SYMATTR Value 318.30
SYMBOL voltage 64 144 R0
WINDOW 123 24 114 Left 2
WINDOW 39 0 0 Left 0
SYMATTR Value2 AC 1V
SYMATTR InstName V3
SYMATTR Value ""
TEXT 56 -192 Left 2 ;Second Order Active Low Pass Butterworth Filter
TEXT 160 -160 Left 2 !.ac dec 10 10 100k
