Version 4.1
SHEET 1 880 708
WIRE 16 -96 -32 -96
WIRE 64 -96 16 -96
WIRE 16 -48 16 -96
WIRE 16 48 -128 48
WIRE 128 48 16 48
WIRE -128 96 -128 48
WIRE 128 96 128 48
WIRE -128 288 -128 176
WIRE 128 288 128 176
WIRE -192 336 -352 336
WIRE 288 336 192 336
WIRE -352 400 -352 336
WIRE 288 416 288 336
WIRE -128 432 -128 384
WIRE 0 432 -128 432
WIRE 128 432 128 384
WIRE 128 432 0 432
WIRE 0 448 0 432
WIRE -352 576 -352 480
FLAG -352 576 0
FLAG 288 416 0
FLAG 16 -48 0
FLAG -112 -96 Vcc
IOPIN -112 -96 Out
FLAG 144 -96 Vee
IOPIN 144 -96 Out
FLAG 0 528 Vee
IOPIN 0 528 In
FLAG 16 48 Vcc
IOPIN 16 48 In
SYMBOL voltage -128 -96 R270
WINDOW 0 32 56 VTop 2
WINDOW 3 -32 56 VBottom 2
WINDOW 123 0 0 Left 0
WINDOW 39 0 0 Left 0
SYMATTR InstName V1
SYMATTR Value 12V
SYMBOL npn -192 288 R0
SYMATTR InstName Q1
SYMBOL npn 192 288 M0
SYMATTR InstName Q2
SYMBOL res -144 80 R0
SYMATTR InstName R1
SYMATTR Value 6.2k
SYMBOL res 112 80 R0
SYMATTR InstName R2
SYMATTR Value 6.2k
SYMBOL res -16 432 R0
SYMATTR InstName R3
SYMATTR Value 5.6k
SYMBOL voltage -352 384 R0
WINDOW 123 0 0 Left 0
WINDOW 39 0 0 Left 0
SYMATTR InstName V2
SYMATTR Value SINE(0 10m 1k)
SYMBOL voltage 48 -96 R270
WINDOW 0 32 56 VTop 2
WINDOW 3 -32 56 VBottom 2
WINDOW 123 0 0 Left 0
WINDOW 39 0 0 Left 0
SYMATTR InstName V3
SYMATTR Value 12V
TEXT -384 616 Left 2 !.tran 0 1ms 0 100n
