Version 4.1
SHEET 1 880 680
WIRE 96 80 0 80
WIRE 288 80 176 80
WIRE 432 80 352 80
WIRE 0 144 0 80
WIRE 432 144 432 80
WIRE 0 288 0 224
WIRE 432 288 432 224
WIRE 432 288 0 288
SYMBOL voltage 0 128 R0
WINDOW 123 24 124 Left 2
WINDOW 39 0 0 Left 0
SYMATTR Value2 AC 1
SYMATTR InstName V1
SYMATTR Value ""
SYMBOL res 192 64 R90
WINDOW 0 0 56 VBottom 2
WINDOW 3 32 56 VTop 2
SYMATTR InstName R1
SYMATTR Value 10k
SYMBOL cap 352 64 R90
WINDOW 0 0 32 VBottom 2
WINDOW 3 32 32 VTop 2
SYMATTR InstName C1
SYMATTR Value 10nF
SYMBOL ind 416 128 R0
SYMATTR InstName L1
SYMATTR Value 10mH
TEXT 56 -128 Left 2 ;AC Analysis Of Series RLC circuit
TEXT 128 -72 Left 2 !.ac dec 10 100 1MEG
