Version 4.1
SHEET 1 880 680
WIRE 128 144 32 144
WIRE 272 144 192 144
WIRE 368 144 272 144
WIRE 32 192 32 144
WIRE 272 192 272 144
WIRE 368 208 368 144
WIRE 32 320 32 272
WIRE 272 320 272 272
WIRE 272 320 32 320
WIRE 368 320 368 272
WIRE 368 320 272 320
WIRE 32 352 32 320
FLAG 32 352 0
FLAG 368 144 vout
SYMBOL diode 128 160 R270
WINDOW 0 32 32 VTop 2
WINDOW 3 0 32 VBottom 2
SYMATTR InstName D1
SYMATTR Value 1N4148
SYMBOL voltage 32 176 R0
WINDOW 123 0 0 Left 0
WINDOW 39 0 0 Left 0
SYMATTR InstName V1
SYMATTR Value SINE(0 2V 1k)
SYMBOL res 256 176 R0
SYMATTR InstName R1
SYMATTR Value 1k
SYMBOL cap 352 208 R0
SYMATTR InstName C1
SYMATTR Value 10u
TEXT 48 64 Left 2 ;Half Wave Rectifer Using Diode
TEXT 80 352 Left 2 !.tran 0 2ms 0 10u
TEXT 416 96 Left 2 ;Ripple Voltage \nV = Iload / fC\n \n\nhere, V = 0.13V
